121310009
  -OEChem-08232014072D

 39 41  0     1  0  0  0  0  0999 V2000
    2.8080   -3.0869    0.0000 P   0  0  0  0  0  0  0  0  0  0  0  0
    4.3160    0.0858    0.0000 O   0  0  0  0  0  0  0  0  0  0  0  0
    6.8557   -0.4098    0.0000 O   0  0  0  0  0  0  0  0  0  0  0  0
    5.5800   -2.1721    0.0000 O   0  0  0  0  0  0  0  0  0  0  0  0
    3.6160   -2.4977    0.0000 O   0  0  0  0  0  0  0  0  0  0  0  0
    2.0000   -3.6761    0.0000 O   0  0  0  0  0  0  0  0  0  0  0  0
    3.3972   -3.8949    0.0000 O   0  0  0  0  0  0  0  0  0  0  0  0
    2.2188   -2.2789    0.0000 O   0  0  0  0  0  0  0  0  0  0  0  0
    4.0096    1.6517    0.0000 N   0  0  0  0  0  0  0  0  0  0  0  0
    3.1436    1.1517    0.0000 N   0  0  0  0  0  0  0  0  0  0  0  0
    6.8825    1.5748    0.0000 N   0  0  0  0  0  0  0  0  0  0  0  0
    2.2776    2.6517    0.0000 N   0  0  0  0  0  0  0  0  0  0  0  0
    3.1436    4.1517    0.0000 N   0  0  0  0  0  0  0  0  0  0  0  0
    5.2665    0.3965    0.0000 C   0  0  2  0  0  0  0  0  0  0  0  0
    5.8557   -0.4115    0.0000 C   0  0  1  0  0  0  0  0  0  0  0  0
    5.2693   -1.2216    0.0000 C   0  0  1  0  0  0  0  0  0  0  0  0
    4.3178   -0.9142    0.0000 C   0  0  1  0  0  0  0  0  0  0  0  0
    4.9559    1.3470    0.0000 C   0  0  0  0  0  0  0  0  0  0  0  0
    3.5098   -1.5034    0.0000 C   0  0  0  0  0  0  0  0  0  0  0  0
    5.5395    2.1517    0.0000 C   0  0  0  0  0  0  0  0  0  0  0  0
    6.0745    0.9857    0.0000 C   0  0  0  0  0  0  0  0  0  0  0  0
    4.0096    2.6517    0.0000 C   0  0  0  0  0  0  0  0  0  0  0  0
    4.9559    2.9565    0.0000 C   0  0  0  0  0  0  0  0  0  0  0  0
    3.1436    3.1517    0.0000 C   0  0  0  0  0  0  0  0  0  0  0  0
    2.2776    1.6517    0.0000 C   0  0  0  0  0  0  0  0  0  0  0  0
    6.1382   -0.9635    0.0000 H   0  0  0  0  0  0  0  0  0  0  0  0
    4.8317   -1.6607    0.0000 H   0  0  0  0  0  0  0  0  0  0  0  0
    3.7648   -0.6337    0.0000 H   0  0  0  0  0  0  0  0  0  0  0  0
    3.2370   -0.9466    0.0000 H   0  0  0  0  0  0  0  0  0  0  0  0
    2.9141   -1.6753    0.0000 H   0  0  0  0  0  0  0  0  0  0  0  0
    6.1595    2.1517    0.0000 H   0  0  0  0  0  0  0  0  0  0  0  0
    7.1666   -0.9462    0.0000 H   0  0  0  0  0  0  0  0  0  0  0  0
    6.1867   -2.2999    0.0000 H   0  0  0  0  0  0  0  0  0  0  0  0
    5.1485    3.5458    0.0000 H   0  0  0  0  0  0  0  0  0  0  0  0
    1.7407    1.3417    0.0000 H   0  0  0  0  0  0  0  0  0  0  0  0
    2.6067    4.4617    0.0000 H   0  0  0  0  0  0  0  0  0  0  0  0
    3.6806    4.4617    0.0000 H   0  0  0  0  0  0  0  0  0  0  0  0
    2.0659   -4.2926    0.0000 H   0  0  0  0  0  0  0  0  0  0  0  0
    3.1460   -4.4617    0.0000 H   0  0  0  0  0  0  0  0  0  0  0  0
  1  5  1  0  0  0  0
  1  6  1  0  0  0  0
  1  7  1  0  0  0  0
  1  8  2  0  0  0  0
  2 14  1  0  0  0  0
  2 17  1  0  0  0  0
 15  3  1  6  0  0  0
  3 32  1  0  0  0  0
 16  4  1  6  0  0  0
  4 33  1  0  0  0  0
  5 19  1  0  0  0  0
  6 38  1  0  0  0  0
  7 39  1  0  0  0  0
  9 10  1  0  0  0  0
  9 18  1  0  0  0  0
  9 22  1  0  0  0  0
 10 25  2  0  0  0  0
 11 21  3  0  0  0  0
 12 24  2  0  0  0  0
 12 25  1  0  0  0  0
 13 24  1  0  0  0  0
 13 36  1  0  0  0  0
 13 37  1  0  0  0  0
 14 15  1  0  0  0  0
 14 18  1  0  0  0  0
 14 21  1  6  0  0  0
 15 16  1  0  0  0  0
 15 26  1  0  0  0  0
 16 17  1  0  0  0  0
 16 27  1  0  0  0  0
 17 19  1  1  0  0  0
 17 28  1  0  0  0  0
 18 20  2  0  0  0  0
 19 29  1  0  0  0  0
 19 30  1  0  0  0  0
 20 23  1  0  0  0  0
 20 31  1  0  0  0  0
 22 23  2  0  0  0  0
 22 24  1  0  0  0  0
 23 34  1  0  0  0  0
 25 35  1  0  0  0  0
M  END
> <PUBCHEM_COMPOUND_CID>
121310009

> <PUBCHEM_COMPOUND_CANONICALIZED>
1

> <PUBCHEM_CACTVS_COMPLEXITY>
610

> <PUBCHEM_CACTVS_HBOND_ACCEPTOR>
11

> <PUBCHEM_CACTVS_HBOND_DONOR>
5

> <PUBCHEM_CACTVS_ROTATABLE_BOND>
4

> <PUBCHEM_CACTVS_SUBSKEYS>
AAADccBzuAIAAAAAAAAAAAAAAAAAAWJAAAAsAAAAAAAAAFgB4AAAHgAYCCAADFyhlgY18LZIFxCyRSZjZISShC8xkqAd2CA4fJiL/uLAuJmX8AhnyAPb6C/w8PcOAAAAAAAAAAAAAAAAAAAAAAAAAAAAAA==

> <PUBCHEM_IUPAC_OPENEYE_NAME>
[(2R,3S,4R,5R)-5-(4-aminopyrrolo[2,1-f][1,2,4]triazin-7-yl)-5-cyano-3,4-dihydroxy-tetrahydrofuran-2-yl]methyl dihydrogen phosphate

> <PUBCHEM_IUPAC_CAS_NAME>
[(2R,3S,4R,5R)-5-(4-amino-7-pyrrolo[2,1-f][1,2,4]triazinyl)-5-cyano-3,4-dihydroxy-2-oxolanyl]methyl dihydrogen phosphate

> <PUBCHEM_IUPAC_NAME_MARKUP>
[(2<I>R</I>,3<I>S</I>,4<I>R</I>,5<I>R</I>)-5-(4-aminopyrrolo[2,1-f][1,2,4]triazin-7-yl)-5-cyano-3,4-dihydroxyoxolan-2-yl]methyl dihydrogen phosphate

> <PUBCHEM_IUPAC_NAME>
[(2R,3S,4R,5R)-5-(4-aminopyrrolo[2,1-f][1,2,4]triazin-7-yl)-5-cyano-3,4-dihydroxyoxolan-2-yl]methyl dihydrogen phosphate

> <PUBCHEM_IUPAC_SYSTEMATIC_NAME>
[(2R,3S,4R,5R)-5-(4-azanylpyrrolo[2,1-f][1,2,4]triazin-7-yl)-5-cyano-3,4-bis(oxidanyl)oxolan-2-yl]methyl dihydrogen phosphate

> <PUBCHEM_IUPAC_TRADITIONAL_NAME>
[(2R,3S,4R,5R)-5-(4-aminopyrrolo[2,1-f][1,2,4]triazin-7-yl)-5-cyano-3,4-dihydroxy-tetrahydrofuran-2-yl]methyl dihydrogen phosphate

> <PUBCHEM_IUPAC_INCHI>
InChI=1S/C12H14N5O7P/c13-4-12(8-2-1-6-11(14)15-5-16-17(6)8)10(19)9(18)7(24-12)3-23-25(20,21)22/h1-2,5,7,9-10,18-19H,3H2,(H2,14,15,16)(H2,20,21,22)/t7-,9-,10-,12+/m1/s1

> <PUBCHEM_IUPAC_INCHIKEY>
ZBHOHJWLOOFLMW-LTGWCKQJSA-N

> <PUBCHEM_XLOGP3_AA>
-3.1

> <PUBCHEM_EXACT_MASS>
371.063085

> <PUBCHEM_MOLECULAR_FORMULA>
C12H14N5O7P

> <PUBCHEM_MOLECULAR_WEIGHT>
371.24

> <PUBCHEM_OPENEYE_CAN_SMILES>
C1=C2C(=NC=NN2C(=C1)C3(C(C(C(O3)COP(=O)(O)O)O)O)C#N)N

> <PUBCHEM_OPENEYE_ISO_SMILES>
C1=C2C(=NC=NN2C(=C1)[C@]3([C@@H]([C@@H]([C@H](O3)COP(=O)(O)O)O)O)C#N)N

> <PUBCHEM_CACTVS_TPSA>
196

> <PUBCHEM_MONOISOTOPIC_WEIGHT>
371.063085

> <PUBCHEM_TOTAL_CHARGE>
0

> <PUBCHEM_HEAVY_ATOM_COUNT>
25

> <PUBCHEM_ATOM_DEF_STEREO_COUNT>
4

> <PUBCHEM_ATOM_UDEF_STEREO_COUNT>
0

> <PUBCHEM_BOND_DEF_STEREO_COUNT>
0

> <PUBCHEM_BOND_UDEF_STEREO_COUNT>
0

> <PUBCHEM_ISOTOPIC_ATOM_COUNT>
0

> <PUBCHEM_COMPONENT_COUNT>
1

> <PUBCHEM_CACTVS_TAUTO_COUNT>
-1

> <PUBCHEM_COORDINATE_TYPE>
1
5
255

> <PUBCHEM_BONDANNOTATIONS>
10  25  8
12  24  8
12  25  8
14  21  6
17  19  5
18  20  8
20  23  8
22  23  8
22  24  8
15  3  6
16  4  6
9  10  8
9  18  8
9  22  8

