126719099
  -OEChem-08232014072D

 42 44  0     1  0  0  0  0  0999 V2000
    3.5098   -2.3797    0.0000 P   0  0  3  0  0  0  0  0  0  0  0  0
    2.8080   -3.9632    0.0000 P   0  3  0  0  0  0  0  0  0  0  0  0
    5.0178    0.7930    0.0000 O   0  0  0  0  0  0  0  0  0  0  0  0
    7.5575    0.2974    0.0000 O   0  0  0  0  0  0  0  0  0  0  0  0
    6.2818   -1.4649    0.0000 O   0  0  0  0  0  0  0  0  0  0  0  0
    4.3178   -1.7905    0.0000 O   0  0  0  0  0  0  0  0  0  0  0  0
    2.7018   -2.9689    0.0000 O   0  0  0  0  0  0  0  0  0  0  0  0
    4.0989   -3.1877    0.0000 O   0  0  0  0  0  0  0  0  0  0  0  0
    2.9206   -1.5717    0.0000 O   0  0  0  0  0  0  0  0  0  0  0  0
    2.0000   -4.5524    0.0000 O   0  0  0  0  0  0  0  0  0  0  0  0
    3.7222   -4.3684    0.0000 O   0  0  0  0  0  0  0  0  0  0  0  0
    4.7114    2.3589    0.0000 N   0  0  0  0  0  0  0  0  0  0  0  0
    3.8454    1.8589    0.0000 N   0  0  0  0  0  0  0  0  0  0  0  0
    7.5843    2.2820    0.0000 N   0  0  0  0  0  0  0  0  0  0  0  0
    2.9794    3.3589    0.0000 N   0  0  0  0  0  0  0  0  0  0  0  0
    3.8454    4.8589    0.0000 N   0  0  0  0  0  0  0  0  0  0  0  0
    5.9683    1.1037    0.0000 C   0  0  2  0  0  0  0  0  0  0  0  0
    6.5575    0.2957    0.0000 C   0  0  1  0  0  0  0  0  0  0  0  0
    5.9711   -0.5144    0.0000 C   0  0  1  0  0  0  0  0  0  0  0  0
    5.0195   -0.2070    0.0000 C   0  0  1  0  0  0  0  0  0  0  0  0
    5.6576    2.0542    0.0000 C   0  0  0  0  0  0  0  0  0  0  0  0
    4.2115   -0.7962    0.0000 C   0  0  0  0  0  0  0  0  0  0  0  0
    6.7763    1.6928    0.0000 C   0  0  0  0  0  0  0  0  0  0  0  0
    6.2412    2.8589    0.0000 C   0  0  0  0  0  0  0  0  0  0  0  0
    4.7114    3.3589    0.0000 C   0  0  0  0  0  0  0  0  0  0  0  0
    5.6576    3.6636    0.0000 C   0  0  0  0  0  0  0  0  0  0  0  0
    3.8454    3.8589    0.0000 C   0  0  0  0  0  0  0  0  0  0  0  0
    2.9794    2.3589    0.0000 C   0  0  0  0  0  0  0  0  0  0  0  0
    6.8399   -0.2563    0.0000 H   0  0  0  0  0  0  0  0  0  0  0  0
    5.5334   -0.9535    0.0000 H   0  0  0  0  0  0  0  0  0  0  0  0
    4.4666    0.0735    0.0000 H   0  0  0  0  0  0  0  0  0  0  0  0
    3.9387   -0.2394    0.0000 H   0  0  0  0  0  0  0  0  0  0  0  0
    3.6158   -0.9681    0.0000 H   0  0  0  0  0  0  0  0  0  0  0  0
    6.8612    2.8589    0.0000 H   0  0  0  0  0  0  0  0  0  0  0  0
    7.8684   -0.2390    0.0000 H   0  0  0  0  0  0  0  0  0  0  0  0
    6.8884   -1.5928    0.0000 H   0  0  0  0  0  0  0  0  0  0  0  0
    5.8502    4.2530    0.0000 H   0  0  0  0  0  0  0  0  0  0  0  0
    2.4424    2.0489    0.0000 H   0  0  0  0  0  0  0  0  0  0  0  0
    3.3084    5.1689    0.0000 H   0  0  0  0  0  0  0  0  0  0  0  0
    4.3823    5.1689    0.0000 H   0  0  0  0  0  0  0  0  0  0  0  0
    4.7154   -3.1218    0.0000 H   0  0  0  0  0  0  0  0  0  0  0  0
    2.0659   -5.1689    0.0000 H   0  0  0  0  0  0  0  0  0  0  0  0
  1  6  1  0  0  0  0
  1  7  1  0  0  0  0
  1  8  1  0  0  0  0
  1  9  2  0  0  0  0
  2  7  1  0  0  0  0
  2 10  1  0  0  0  0
  2 11  2  0  0  0  0
  3 17  1  0  0  0  0
  3 20  1  0  0  0  0
 18  4  1  6  0  0  0
  4 35  1  0  0  0  0
 19  5  1  6  0  0  0
  5 36  1  0  0  0  0
  6 22  1  0  0  0  0
  8 41  1  0  0  0  0
 10 42  1  0  0  0  0
 12 13  1  0  0  0  0
 12 21  1  0  0  0  0
 12 25  1  0  0  0  0
 13 28  2  0  0  0  0
 14 23  3  0  0  0  0
 15 27  2  0  0  0  0
 15 28  1  0  0  0  0
 16 27  1  0  0  0  0
 16 39  1  0  0  0  0
 16 40  1  0  0  0  0
 17 18  1  0  0  0  0
 17 21  1  0  0  0  0
 17 23  1  6  0  0  0
 18 19  1  0  0  0  0
 18 29  1  0  0  0  0
 19 20  1  0  0  0  0
 19 30  1  0  0  0  0
 20 22  1  1  0  0  0
 20 31  1  0  0  0  0
 21 24  2  0  0  0  0
 22 32  1  0  0  0  0
 22 33  1  0  0  0  0
 24 26  1  0  0  0  0
 24 34  1  0  0  0  0
 25 26  2  0  0  0  0
 25 27  1  0  0  0  0
 26 37  1  0  0  0  0
 28 38  1  0  0  0  0
M  CHG  1   2   1
M  END
> <PUBCHEM_COMPOUND_CID>
126719099

> <PUBCHEM_COMPOUND_CANONICALIZED>
1

> <PUBCHEM_CACTVS_COMPLEXITY>
721

> <PUBCHEM_CACTVS_HBOND_ACCEPTOR>
13

> <PUBCHEM_CACTVS_HBOND_DONOR>
5

> <PUBCHEM_CACTVS_ROTATABLE_BOND>
6

> <PUBCHEM_CACTVS_SUBSKEYS>
AAADccBzvAMAAAAAAAAAAAAAAAAAAWJAAAAsAAAAAAAAAFgB4AAAHgAYCCAADFyhlgY18LZIFxCyRSZjZISShC8xkqAd2CA4fJiL/uLAuJmX8AhnyAPb6C/w8PcOAAAAAAAAAAAAAAAAAAAAAAAAAAAAAA==

> <PUBCHEM_IUPAC_OPENEYE_NAME>
[[(2R,3S,4R,5R)-5-(4-aminopyrrolo[2,1-f][1,2,4]triazin-7-yl)-5-cyano-3,4-dihydroxy-tetrahydrofuran-2-yl]methoxy-hydroxy-phosphoryl]oxy-hydroxy-oxo-phosphonium

> <PUBCHEM_IUPAC_CAS_NAME>
[[(2R,3S,4R,5R)-5-(4-amino-7-pyrrolo[2,1-f][1,2,4]triazinyl)-5-cyano-3,4-dihydroxy-2-oxolanyl]methoxy-hydroxyphosphoryl]oxy-hydroxy-oxophosphonium

> <PUBCHEM_IUPAC_NAME_MARKUP>
[[(2<I>R</I>,3<I>S</I>,4<I>R</I>,5<I>R</I>)-5-(4-aminopyrrolo[2,1-f][1,2,4]triazin-7-yl)-5-cyano-3,4-dihydroxyoxolan-2-yl]methoxy-hydroxyphosphoryl]oxy-hydroxy-oxophosphanium

> <PUBCHEM_IUPAC_NAME>
[[(2R,3S,4R,5R)-5-(4-aminopyrrolo[2,1-f][1,2,4]triazin-7-yl)-5-cyano-3,4-dihydroxyoxolan-2-yl]methoxy-hydroxyphosphoryl]oxy-hydroxy-oxophosphanium

> <PUBCHEM_IUPAC_SYSTEMATIC_NAME>
[[(2R,3S,4R,5R)-5-(4-azanylpyrrolo[2,1-f][1,2,4]triazin-7-yl)-5-cyano-3,4-bis(oxidanyl)oxolan-2-yl]methoxy-oxidanyl-phosphoryl]oxy-oxidanyl-oxidanylidene-phosphanium

> <PUBCHEM_IUPAC_TRADITIONAL_NAME>
[[(2R,3S,4R,5R)-5-(4-aminopyrrolo[2,1-f][1,2,4]triazin-7-yl)-5-cyano-3,4-dihydroxy-tetrahydrofuran-2-yl]methoxy-hydroxy-phosphoryl]oxy-hydroxy-keto-phosphonium

> <PUBCHEM_IUPAC_INCHI>
InChI=1S/C12H13N5O9P2/c13-4-12(8-2-1-6-11(14)15-5-16-17(6)8)10(19)9(18)7(25-12)3-24-28(22,23)26-27(20)21/h1-2,5,7,9-10,18-19H,3H2,(H3-,14,15,16,20,21,22,23)/p+1/t7-,9-,10-,12+/m1/s1

> <PUBCHEM_IUPAC_INCHIKEY>
ISCYGTQEYNIMDL-LTGWCKQJSA-O

> <PUBCHEM_XLOGP3_AA>
-3

> <PUBCHEM_EXACT_MASS>
434.026676

> <PUBCHEM_MOLECULAR_FORMULA>
C12H14N5O9P2+

> <PUBCHEM_MOLECULAR_WEIGHT>
434.22

> <PUBCHEM_OPENEYE_CAN_SMILES>
C1=C2C(=NC=NN2C(=C1)C3(C(C(C(O3)COP(=O)(O)O[P+](=O)O)O)O)C#N)N

> <PUBCHEM_OPENEYE_ISO_SMILES>
C1=C2C(=NC=NN2C(=C1)[C@]3([C@@H]([C@@H]([C@H](O3)COP(=O)(O)O[P+](=O)O)O)O)C#N)N

> <PUBCHEM_CACTVS_TPSA>
223

> <PUBCHEM_MONOISOTOPIC_WEIGHT>
434.026676

> <PUBCHEM_TOTAL_CHARGE>
1

> <PUBCHEM_HEAVY_ATOM_COUNT>
28

> <PUBCHEM_ATOM_DEF_STEREO_COUNT>
4

> <PUBCHEM_ATOM_UDEF_STEREO_COUNT>
0

> <PUBCHEM_BOND_DEF_STEREO_COUNT>
0

> <PUBCHEM_BOND_UDEF_STEREO_COUNT>
0

> <PUBCHEM_ISOTOPIC_ATOM_COUNT>
0

> <PUBCHEM_COMPONENT_COUNT>
1

> <PUBCHEM_CACTVS_TAUTO_COUNT>
-1

> <PUBCHEM_COORDINATE_TYPE>
1
5
255

> <PUBCHEM_BONDANNOTATIONS>
12  13  8
12  21  8
12  25  8
13  28  8
15  27  8
15  28  8
17  23  6
20  22  5
21  24  8
24  26  8
25  26  8
25  27  8
18  4  6
19  5  6

