135329187
  -OEChem-08232014072D

 41 43  0     1  0  0  0  0  0999 V2000
    3.3748   -3.0869    0.0000 P   0  0  0  0  0  0  0  0  0  0  0  0
    4.8828    0.0858    0.0000 O   0  0  0  0  0  0  0  0  0  0  0  0
    7.4226   -0.4098    0.0000 O   0  0  0  0  0  0  0  0  0  0  0  0
    6.1468   -2.1721    0.0000 O   0  0  0  0  0  0  0  0  0  0  0  0
    4.1828   -2.4977    0.0000 O   0  0  0  0  0  0  0  0  0  0  0  0
    2.7856   -2.2789    0.0000 O   0  0  0  0  0  0  0  0  0  0  0  0
    4.5765    1.6517    0.0000 N   0  0  0  0  0  0  0  0  0  0  0  0
    3.7105    1.1517    0.0000 N   0  0  0  0  0  0  0  0  0  0  0  0
    7.4494    1.5748    0.0000 N   0  0  0  0  0  0  0  0  0  0  0  0
    2.8444    2.6517    0.0000 N   0  0  0  0  0  0  0  0  0  0  0  0
    3.7105    4.1517    0.0000 N   0  0  0  0  0  0  0  0  0  0  0  0
    2.5668   -3.6761    0.0000 N   0  0  0  0  0  0  0  0  0  0  0  0
    3.9640   -3.8949    0.0000 N   0  0  0  0  0  0  0  0  0  0  0  0
    5.8334    0.3965    0.0000 C   0  0  2  0  0  0  0  0  0  0  0  0
    6.4226   -0.4115    0.0000 C   0  0  1  0  0  0  0  0  0  0  0  0
    5.8362   -1.2216    0.0000 C   0  0  1  0  0  0  0  0  0  0  0  0
    4.8846   -0.9142    0.0000 C   0  0  1  0  0  0  0  0  0  0  0  0
    5.5227    1.3470    0.0000 C   0  0  0  0  0  0  0  0  0  0  0  0
    4.0766   -1.5034    0.0000 C   0  0  0  0  0  0  0  0  0  0  0  0
    6.6414    0.9857    0.0000 C   0  0  0  0  0  0  0  0  0  0  0  0
    6.1063    2.1517    0.0000 C   0  0  0  0  0  0  0  0  0  0  0  0
    4.5765    2.6517    0.0000 C   0  0  0  0  0  0  0  0  0  0  0  0
    5.5227    2.9565    0.0000 C   0  0  0  0  0  0  0  0  0  0  0  0
    3.7105    3.1517    0.0000 C   0  0  0  0  0  0  0  0  0  0  0  0
    2.8444    1.6517    0.0000 C   0  0  0  0  0  0  0  0  0  0  0  0
    6.7050   -0.9635    0.0000 H   0  0  0  0  0  0  0  0  0  0  0  0
    6.4487   -1.3175    0.0000 H   0  0  0  0  0  0  0  0  0  0  0  0
    4.3317   -0.6337    0.0000 H   0  0  0  0  0  0  0  0  0  0  0  0
    3.8038   -0.9466    0.0000 H   0  0  0  0  0  0  0  0  0  0  0  0
    3.4809   -1.6753    0.0000 H   0  0  0  0  0  0  0  0  0  0  0  0
    6.7263    2.1517    0.0000 H   0  0  0  0  0  0  0  0  0  0  0  0
    7.7335   -0.9462    0.0000 H   0  0  0  0  0  0  0  0  0  0  0  0
    6.7535   -2.2999    0.0000 H   0  0  0  0  0  0  0  0  0  0  0  0
    5.7153    3.5458    0.0000 H   0  0  0  0  0  0  0  0  0  0  0  0
    2.3075    1.3417    0.0000 H   0  0  0  0  0  0  0  0  0  0  0  0
    3.1735    4.4617    0.0000 H   0  0  0  0  0  0  0  0  0  0  0  0
    4.2474    4.4617    0.0000 H   0  0  0  0  0  0  0  0  0  0  0  0
    2.6327   -4.2926    0.0000 H   0  0  0  0  0  0  0  0  0  0  0  0
    2.0000   -3.4249    0.0000 H   0  0  0  0  0  0  0  0  0  0  0  0
    4.5805   -3.8290    0.0000 H   0  0  0  0  0  0  0  0  0  0  0  0
    3.7128   -4.4617    0.0000 H   0  0  0  0  0  0  0  0  0  0  0  0
  1  5  1  0  0  0  0
  1  6  2  0  0  0  0
  1 12  1  0  0  0  0
  1 13  1  0  0  0  0
  2 14  1  0  0  0  0
  2 17  1  0  0  0  0
 15  3  1  6  0  0  0
  3 32  1  0  0  0  0
 16  4  1  6  0  0  0
  4 33  1  0  0  0  0
  5 19  1  0  0  0  0
  7  8  1  0  0  0  0
  7 18  1  0  0  0  0
  7 22  1  0  0  0  0
  8 25  2  0  0  0  0
  9 20  3  0  0  0  0
 10 24  2  0  0  0  0
 10 25  1  0  0  0  0
 11 24  1  0  0  0  0
 11 36  1  0  0  0  0
 11 37  1  0  0  0  0
 12 38  1  0  0  0  0
 12 39  1  0  0  0  0
 13 40  1  0  0  0  0
 13 41  1  0  0  0  0
 14 15  1  0  0  0  0
 14 18  1  0  0  0  0
 14 20  1  6  0  0  0
 15 16  1  0  0  0  0
 15 26  1  0  0  0  0
 16 17  1  0  0  0  0
 16 27  1  0  0  0  0
 17 19  1  1  0  0  0
 17 28  1  0  0  0  0
 18 21  2  0  0  0  0
 19 29  1  0  0  0  0
 19 30  1  0  0  0  0
 21 23  1  0  0  0  0
 21 31  1  0  0  0  0
 22 23  2  0  0  0  0
 22 24  1  0  0  0  0
 23 34  1  0  0  0  0
 25 35  1  0  0  0  0
M  END
> <PUBCHEM_COMPOUND_CID>
135329187

> <PUBCHEM_COMPOUND_CANONICALIZED>
1

> <PUBCHEM_CACTVS_COMPLEXITY>
610

> <PUBCHEM_CACTVS_HBOND_ACCEPTOR>
11

> <PUBCHEM_CACTVS_HBOND_DONOR>
5

> <PUBCHEM_CACTVS_ROTATABLE_BOND>
4

> <PUBCHEM_CACTVS_SUBSKEYS>
AAADceBzuAIAAAAAAAAAAAAAAAAAAWJAAAAsAAAAAAAAAFgB4AAAHgAYiCAADFyhlgY18LZIFxCyRSZjZISShC8xkqAd2CA4fJiL/uLAuJmX8AhnyAPb6C/w8PcOAAAAAAAAAAAAAAAAAAAAAAAAAAAAAA==

> <PUBCHEM_IUPAC_OPENEYE_NAME>
(2R,3R,4S,5R)-2-(4-aminopyrrolo[2,1-f][1,2,4]triazin-7-yl)-5-(diaminophosphoryloxymethyl)-3,4-dihydroxy-tetrahydrofuran-2-carbonitrile

> <PUBCHEM_IUPAC_CAS_NAME>
(2R,3R,4S,5R)-2-(4-amino-7-pyrrolo[2,1-f][1,2,4]triazinyl)-5-(diaminophosphoryloxymethyl)-3,4-dihydroxy-2-oxolanecarbonitrile

> <PUBCHEM_IUPAC_NAME_MARKUP>
(2<I>R</I>,3<I>R</I>,4<I>S</I>,5<I>R</I>)-2-(4-aminopyrrolo[2,1-f][1,2,4]triazin-7-yl)-5-(diaminophosphoryloxymethyl)-3,4-dihydroxyoxolane-2-carbonitrile

> <PUBCHEM_IUPAC_NAME>
(2R,3R,4S,5R)-2-(4-aminopyrrolo[2,1-f][1,2,4]triazin-7-yl)-5-(diaminophosphoryloxymethyl)-3,4-dihydroxyoxolane-2-carbonitrile

> <PUBCHEM_IUPAC_SYSTEMATIC_NAME>
(2R,3R,4S,5R)-2-(4-azanylpyrrolo[2,1-f][1,2,4]triazin-7-yl)-5-[bis(azanyl)phosphoryloxymethyl]-3,4-bis(oxidanyl)oxolane-2-carbonitrile

> <PUBCHEM_IUPAC_TRADITIONAL_NAME>
(2R,3R,4S,5R)-2-(4-aminopyrrolo[2,1-f][1,2,4]triazin-7-yl)-5-(diaminophosphoryloxymethyl)-3,4-dihydroxy-tetrahydrofuran-2-carbonitrile

> <PUBCHEM_IUPAC_INCHI>
InChI=1S/C12H16N7O5P/c13-4-12(8-2-1-6-11(14)17-5-18-19(6)8)10(21)9(20)7(24-12)3-23-25(15,16)22/h1-2,5,7,9-10,20-21H,3H2,(H2,14,17,18)(H4,15,16,22)/t7-,9-,10-,12+/m1/s1

> <PUBCHEM_IUPAC_INCHIKEY>
REFCRTHNBDEBJT-LTGWCKQJSA-N

> <PUBCHEM_XLOGP3_AA>
-3.6

> <PUBCHEM_EXACT_MASS>
369.095054

> <PUBCHEM_MOLECULAR_FORMULA>
C12H16N7O5P

> <PUBCHEM_MOLECULAR_WEIGHT>
369.27

> <PUBCHEM_OPENEYE_CAN_SMILES>
C1=C2C(=NC=NN2C(=C1)C3(C(C(C(O3)COP(=O)(N)N)O)O)C#N)N

> <PUBCHEM_OPENEYE_ISO_SMILES>
C1=C2C(=NC=NN2C(=C1)[C@]3([C@@H]([C@@H]([C@H](O3)COP(=O)(N)N)O)O)C#N)N

> <PUBCHEM_CACTVS_TPSA>
208

> <PUBCHEM_MONOISOTOPIC_WEIGHT>
369.095054

> <PUBCHEM_TOTAL_CHARGE>
0

> <PUBCHEM_HEAVY_ATOM_COUNT>
25

> <PUBCHEM_ATOM_DEF_STEREO_COUNT>
4

> <PUBCHEM_ATOM_UDEF_STEREO_COUNT>
0

> <PUBCHEM_BOND_DEF_STEREO_COUNT>
0

> <PUBCHEM_BOND_UDEF_STEREO_COUNT>
0

> <PUBCHEM_ISOTOPIC_ATOM_COUNT>
0

> <PUBCHEM_COMPONENT_COUNT>
1

> <PUBCHEM_CACTVS_TAUTO_COUNT>
-1

> <PUBCHEM_COORDINATE_TYPE>
1
5
255

> <PUBCHEM_BONDANNOTATIONS>
10  24  8
10  25  8
14  20  6
17  19  5
18  21  8
21  23  8
22  23  8
22  24  8
15  3  6
16  4  6
7  18  8
7  22  8
7  8  8
8  25  8

